/*--------------------------------*- C++ -*----------------------------------*\
| =========                 |                                                 |
| \\      /  F ield         | OpenFOAM Extend Project: Open source CFD        |
|  \\    /   O peration     | Version:  1.6-ext                               |
|   \\  /    A nd           | Web:      www.extend-project.de                 |
|    \\/     M anipulation  |                                                 |
\*---------------------------------------------------------------------------*/
FoamFile
{
    version     2.0;
    format      ascii;
    class       volVectorField;
    object      U;
}
// * * * * * * * * * * * * * * * * * * * * * * * * * * * * * * * * * * * * * //

dimensions      [0 1 -1 0 0 0 0];

internalField  uniform (1 1 1); 

boundaryField
{
    INLET
    {
        type		fixedValue;
	/*type              profile1DfixedValue;
        fileName          "U_IN.csv";
        fileFormat        "turboCSV";
        interpolateCoord  "R";
        fieldName         "Velocity";*/

2112
(
(0.27811156696 0.260335614223 1.47792340335)
(0.31162416289 0.255691151268 1.56385819664)
(0.344551083074 0.246920153862 1.64453532243)
(0.376293387457 0.23406372317 1.71924874823)
(0.406262352434 0.217254917082 1.78735121614)
(0.433893425527 0.196715951427 1.84825795077)
(0.458659561678 0.172753324615 1.90144998088)
(0.480083585263 0.145750967994 1.94647684554)
(0.497749427256 0.116161643059 1.98295922463)
(0.511311897791 0.0844967363191 2.01059109916)
(0.520504759814 0.0513146940105 2.02914139248)
(0.52514698557 0.0172083778153 2.03845534499)
(0.52514698557 -0.0172083778153 2.03845534499)
(0.520504759814 -0.0513146940105 2.02914139248)
(0.511311897791 -0.0844967363191 2.01059109916)
(0.497749427256 -0.116161643059 1.98295922463)
(0.480083585263 -0.145750967994 1.94647684554)
(0.458659561678 -0.172753324615 1.90144998088)
(0.433893425527 -0.196715951427 1.84825795077)
(0.406262352434 -0.217254917082 1.78735121614)
(0.376293387457 -0.23406372317 1.71924874823)
(0.344551083074 -0.246920153862 1.64453532243)
(0.31162416289 -0.255691151268 1.56385819664)
(0.27811156696 -0.260335614223 1.47792340335)
(0.683893592046 0.64039099191 3.64519140605)
(0.724051480451 0.594619869633 3.64951894759)
(0.761214462221 0.546248474795 3.65358191839)
(0.795203604287 0.49547628506 3.65734489191)
(0.82585381362 0.442516355359 3.66077530583)
(0.853014994465 0.387594329183 3.6638436677)
(0.876553145063 0.330947316818 3.66652374029)
(0.896351369178 0.272822649349 3.66879270632)
(0.912310782168 0.213476518959 3.67063131792)
(0.924351294759 0.153172515652 3.67202402278)
(0.932412258487 0.0921800776215 3.67295906445)
(0.936452960798 0.0307728729812 3.67342856213)
(0.936452960798 -0.0307728729812 3.67342856213)
(0.932412258487 -0.0921800776215 3.67295906445)
(0.924351294759 -0.153172515652 3.67202402278)
(0.912310782168 -0.213476518959 3.67063131792)
(0.896351369178 -0.272822649349 3.66879270632)
(0.876553145063 -0.330947316818 3.66652374029)
(0.853014994465 -0.387594329183 3.6638436677)
(0.82585381362 -0.442516355359 3.66077530583)
(0.795203604287 -0.49547628506 3.65734489191)
(0.761214462221 -0.546248474795 3.65358191839)
(0.724051480451 -0.594619869633 3.64951894759)
(0.683893592046 -0.64039099191 3.64519140605)
(0.68383270476 0.640564811471 3.69435549914)
(0.723827126824 0.595017574046 3.70182516995)
(0.760900408348 0.546829108305 3.70883798556)
(0.794860540941 0.496192140683 3.71533320095)
(0.82552892625 0.443315576967 3.72125481709)
(0.85274198337 0.388423528078 3.72655197068)
(0.876352695822 0.331754124922 3.73117929514)
(0.89623205952 0.27355813044 3.73509724929)
(0.912270397672 0.214097359138 3.73827241128)
(0.924378509643 0.153642924698 3.74067773064)
(0.932488626224 0.0924733386183 3.74229273412)
(0.936555148011 0.0308724861974 3.7431036836)
(0.936555148011 -0.0308724861974 3.7431036836)
(0.932488626224 -0.0924733386183 3.74229273412)
(0.924378509643 -0.153642924698 3.74067773064)
(0.912270397672 -0.214097359138 3.73827241128)
(0.89623205952 -0.27355813044 3.73509724929)
(0.876352695822 -0.331754124922 3.73117929514)
(0.85274198337 -0.388423528078 3.72655197068)
(0.82552892625 -0.443315576967 3.72125481709)
(0.794860540941 -0.496192140683 3.71533320095)
(0.760900408348 -0.546829108305 3.70883798556)
(0.723827126824 -0.595017574046 3.70182516995)
(0.68383270476 -0.640564811471 3.69435549914)
(0.683763976454 0.640755218362 3.74725480713)
(0.723577099869 0.595455596839 3.75810428451)
(0.760550110382 0.547470178738 3.76828976682)
(0.794477012931 0.496983995922 3.77772370915)
(0.825164593606 0.444201079274 3.78632513824)
(0.852434527207 0.389343552426 3.7940202775)
(0.876125439905 0.332650419318 3.80074313513)
(0.896094868547 0.274376050575 3.80643604806)
(0.912221061286 0.214788383479 3.81105016929)
(0.924404569061 0.154166856149 3.81454589097)
(0.932569580419 0.0928001108687 3.81689319214)
(0.936664960161 0.0309835070137 3.81807190694)
(0.936664960161 -0.0309835070137 3.81807190694)
(0.932569580419 -0.0928001108687 3.81689319214)
(0.924404569061 -0.154166856149 3.81454589097)
(0.912221061286 -0.214788383479 3.81105016929)
(0.896094868547 -0.274376050575 3.80643604806)
(0.876125439905 -0.332650419318 3.80074313513)
(0.852434527207 -0.389343552426 3.7940202775)
(0.825164593606 -0.444201079274 3.78632513824)
(0.794477012931 -0.496983995922 3.77772370915)
(0.760550110382 -0.547470178738 3.76828976682)
(0.723577099869 -0.595455596839 3.75810428451)
(0.683763976454 -0.640755218362 3.74725480713)
(0.683686153146 0.640964162434 3.80417300292)
(0.723297648611 0.595939089325 3.81865779705)
(0.760158183737 0.548179697462 3.8322554161)
(0.794046836758 0.497862210761 3.84485001325)
(0.824754583998 0.445184907945 3.85633404171)
(0.852086966019 0.390367348773 3.86660917306)
(0.875866739963 0.333649185504 3.87558717482)
(0.895936437501 0.275288554364 3.88319073188)
(0.912160747283 0.215560057891 3.88935418901)
(0.924428643625 0.154752364451 3.89402419877)
(0.932655188565 0.0931654685978 3.8971602604)
(0.936782944237 0.0311076683719 3.89873513629)
(0.936782944237 -0.0311076683719 3.89873513629)
(0.932655188565 -0.0931654685978 3.8971602604)
(0.924428643625 -0.154752364451 3.89402419877)
(0.912160747283 -0.215560057891 3.88935418901)
(0.895936437501 -0.275288554364 3.88319073188)
(0.875866739963 -0.333649185504 3.87558717482)
(0.852086966019 -0.390367348773 3.86660917306)
(0.824754583998 -0.445184907945 3.85633404171)
(0.794046836758 -0.497862210761 3.84485001325)
(0.760158183737 -0.548179697462 3.8322554161)
(0.723297648611 -0.595939089325 3.81865779705)
(0.683686153146 -0.640964162434 3.80417300292)
(0.68359773358 0.641193900133 3.86541527327)
(0.722984310294 0.596474082891 3.88381002909)
(0.759718198031 0.548967096512 3.90107709918)
(0.793562589168 0.498839041772 3.91707083332)
(0.824291375025 0.446281374637 3.93165545868)
(0.851692427559 0.391510357322 3.94470635987)
(0.875570927024 0.334765963043 3.95611132037)
(0.895752623322 0.276310216401 3.9657716958)
(0.912086916411 0.21642497157 3.97360348587)
(0.924449640995 0.155409156369 3.9795382793)
(0.932745447129 0.0935755343634 3.98352404354)
(0.936909680014 0.0312470617608 3.98552573873)
(0.936909680014 -0.0312470617608 3.98552573873)
(0.932745447129 -0.0935755343634 3.98352404354)
(0.924449640995 -0.155409156369 3.9795382793)
(0.912086916411 -0.21642497157 3.97360348587)
(0.895752623322 -0.276310216401 3.9657716958)
(0.875570927024 -0.334765963043 3.95611132037)
(0.851692427559 -0.391510357322 3.94470635987)
(0.824291375025 -0.446281374637 3.93165545868)
(0.793562589168 -0.498839041772 3.91707083332)
(0.759718198031 -0.548967096512 3.90107709918)
(0.722984310294 -0.596474082891 3.88381002909)
(0.68359773358 -0.641193900133 3.86541527327)
(0.683496909555 0.641447060149 3.93130994053)
(0.722631740544 0.597067686111 3.95390982287)
(0.759222415207 0.549843564004 3.97512277049)
(0.793015288428 0.499929100559 3.99477185545)
(0.823765811775 0.447507619034 4.01269138814)
(0.851242496307 0.392791146639 4.02872863655)
(0.875231011053 0.336019508972 4.0427455184)
(0.895538271718 0.277458684939 4.05462021651)
(0.911996361575 0.217398408134 4.06424867397)
(0.924466121448 0.156149038925 4.07154592252)
(0.932840251446 0.0940377654157 4.07644720223)
(0.937045779647 0.0314042371845 4.07890883787)
(0.937045779647 -0.0314042371845 4.07890883787)
(0.932840251446 -0.0940377654157 4.07644720223)
(0.924466121448 -0.156149038925 4.07154592252)
(0.911996361575 -0.217398408134 4.06424867397)
(0.895538271718 -0.277458684939 4.05462021651)
(0.875231011053 -0.336019508972 4.0427455184)
(0.851242496307 -0.392791146639 4.02872863655)
(0.823765811775 -0.447507619034 4.01269138814)
(0.793015288428 -0.499929100559 3.99477185545)
(0.759222415207 -0.549843564004 3.97512277049)
(0.722631740544 -0.597067686111 3.95390982287)
(0.683496909555 -0.641447060149 3.93130994053)
(0.683381490717 0.641726725323 4.00221020418)
(0.722233488771 0.597728343513 4.02933236783)
(0.758661449762 0.550822474811 4.05478806958)
(0.792393973087 0.501149953156 4.07836769283)
(0.82316665061 0.448884350311 4.09987392429)
(0.850726769561 0.394232253925 4.11912399615)
(0.874838290281 0.337432680767 4.13595192953)
(0.895286909618 0.278755540839 4.1502107041)
(0.911884997429 0.218499111067 4.16177428988)
(0.924476181528 0.156986523858 4.17053946937)
(0.932939353477 0.0945613408532 4.17642738769)
(0.93719188616 0.0315823352605 4.17938477275)
(0.93719188616 -0.0315823352605 4.17938477275)
(0.932939353477 -0.0945613408532 4.17642738769)
(0.924476181528 -0.156986523858 4.17053946937)
(0.911884997429 -0.218499111067 4.16177428988)
(0.895286909618 -0.278755540839 4.1502107041)
(0.874838290281 -0.337432680767 4.13595192953)
(0.850726769561 -0.394232253925 4.11912399615)
(0.82316665061 -0.448884350311 4.09987392429)
(0.792393973087 -0.501149953156 4.07836769283)
(0.758661449762 -0.550822474811 4.05478806958)
(0.722233488771 -0.597728343513 4.02933236783)
(0.683381490717 -0.641726725323 4.00221020418)
(0.68324880346 0.642036541562 4.07849600491)
(0.721781707562 0.598466167319 4.11048115294)
(0.758023814958 0.551919960474 4.14049833929)
(0.791685138642 0.502522912384 4.16830396519)
(0.822479944813 0.450436832604 4.19366739961)
(0.850132254015 0.395861311398 4.21637384123)
(0.87534609866 0.339407520271 4.23351010573)
(0.898521546344 0.281333115331 4.24333178385)
(0.917447169802 0.221124049829 4.25129856795)
(0.93187244556 0.159203056853 4.25733842704)
(0.941601657697 0.0960306301153 4.26139618332)
(0.9465004504 0.0320956052071 4.26343448568)
(0.9465004504 -0.0320956052071 4.26343448568)
(0.941601657697 -0.0960306301153 4.26139618332)
(0.93187244556 -0.159203056853 4.25733842704)
(0.917447169802 -0.221124049829 4.25129856795)
(0.898521546344 -0.281333115331 4.24333178385)
(0.87534609866 -0.339407520271 4.23351010573)
(0.850132254015 -0.395861311398 4.21637384123)
(0.822479944813 -0.450436832604 4.19366739961)
(0.791685138642 -0.502522912384 4.16830396519)
(0.758023814958 -0.551919960474 4.14049833929)
(0.721781707562 -0.598466167319 4.11048115294)
(0.68324880346 -0.642036541562 4.07849600491)
(0.683095559913 0.642380857725 4.16057602307)
(0.721266761314 0.599293380787 4.19779004534)
(0.757680544072 0.553437049567 4.2314574587)
(0.79559658887 0.507085406315 4.25034022096)
(0.830693309698 0.457151962474 4.26756661753)
(0.862543327551 0.403846428266 4.28299136223)
(0.890735707455 0.347444871157 4.2964810736)
(0.914887822876 0.288288749333 4.30791643905)
(0.934657408683 0.226781322648 4.31719429285)
(0.949754143817 0.163381325459 4.32422952483)
(0.959950058594 0.0985939731342 4.32895673462)
(0.965088074292 0.0329595969469 4.33133155052)
(0.965088074292 -0.0329595969469 4.33133155052)
(0.959950058594 -0.0985939731342 4.32895673462)
(0.949754143817 -0.163381325459 4.32422952483)
(0.934657408683 -0.226781322648 4.31719429285)
(0.914887822876 -0.288288749333 4.30791643905)
(0.890735707455 -0.347444871157 4.2964810736)
(0.862543327551 -0.403846428266 4.28299136223)
(0.830693309698 -0.457151962474 4.26756661753)
(0.79559658887 -0.507085406315 4.25034022096)
(0.757680544072 -0.553437049567 4.2314574587)
(0.721266761314 -0.599293380787 4.19779004534)
(0.683095559913 -0.642380857725 4.16057602307)
(0.685131821885 0.644848867449 4.24090157634)
(0.72822843292 0.606514463133 4.2659058427)
(0.769520345224 0.564129512887 4.28936641019)
(0.808540707345 0.517751208738 4.31109962781)
(0.844811512885 0.467506036688 4.33092918288)
(0.877854914184 0.413595084654 4.3486886667)
(0.907206343053 0.356297062593 4.36422429271)
(0.932428924324 0.295968441943 4.37739766223)
(0.953128472092 0.233040244784 4.3880884685)
(0.968968186289 0.168011220233 4.3961970107)
(0.979682068294 0.101437422268 4.40164639901)
(0.985086066028 0.0339185188011 4.40438432967)
(0.985086066028 -0.0339185188011 4.40438432967)
(0.979682068294 -0.101437422268 4.40164639901)
(0.968968186289 -0.168011220233 4.3961970107)
(0.953128472092 -0.233040244784 4.3880884685)
(0.932428924324 -0.295968441943 4.37739766223)
(0.907206343053 -0.356297062593 4.36422429271)
(0.877854914184 -0.413595084654 4.3486886667)
(0.844811512885 -0.467506036688 4.33092918288)
(0.808540707345 -0.517751208738 4.31109962781)
(0.769520345224 -0.564129512887 4.28936641019)
(0.72822843292 -0.606514463133 4.2659058427)
(0.685131821885 -0.644848867449 4.24090157634)
(0.695881709224 0.655604349537 4.29636729071)
(0.739830980192 0.617843180209 4.32489908781)
(0.782151960721 0.575771172015 4.35166565634)
(0.822338528838 0.529413658766 4.37646212024)
(0.859864887201 0.478873131944 4.39909012454)
(0.894198220627 0.424337183217 4.41936092844)
(0.924814002839 0.366083868473 4.43709876912)
(0.952080773 0.304761247756 4.45026097377)
(0.975337739552 0.24058778767 4.45925514985)
(0.99320202284 0.173795693287 4.46607873905)
(1.00531848573 0.105069529039 4.47066554587)
(1.01144008367 0.035156543278 4.4729704017)
(1.01144008367 -0.035156543278 4.4729704017)
(1.00531848573 -0.105069529039 4.47066554587)
(0.99320202284 -0.173795693287 4.46607873905)
(0.975337739552 -0.24058778767 4.45925514985)
(0.952080773 -0.304761247756 4.45026097377)
(0.924814002839 -0.366083868473 4.43709876912)
(0.894198220627 -0.424337183217 4.41936092844)
(0.859864887201 -0.478873131944 4.39909012454)
(0.822338528838 -0.529413658766 4.37646212024)
(0.782151960721 -0.575771172015 4.35166565634)
(0.739830980192 -0.617843180209 4.32489908781)
(0.695881709224 -0.655604349537 4.29636729071)
(0.707415443793 0.667210448838 4.35604442502)
(0.752223144979 0.63013655881 4.38836757753)
(0.795605462116 0.588471177741 4.41868594158)
(0.837207208615 0.542323191099 4.44630597008)
(0.878930802984 0.493104379965 4.46518368521)
(0.917404660119 0.438994281075 4.48209968861)
(0.951953772867 0.380288095872 4.49690714703)
(0.981926890287 0.31740729422 4.50947190169)
(1.00672311156 0.250898823211 4.51967574938)
(1.02581927415 0.181427120885 4.5274196015)
(1.03879596819 0.109758498621 4.5326263318)
(1.04535981939 0.0367382526935 4.53524311959)
(1.04535981939 -0.0367382526935 4.53524311959)
(1.03879596819 -0.109758498621 4.5326263318)
(1.02581927415 -0.181427120885 4.5274196015)
(1.00672311156 -0.250898823211 4.51967574938)
(0.981926890287 -0.31740729422 4.50947190169)
(0.951953772867 -0.380288095872 4.49690714703)
(0.917404660119 -0.438994281075 4.48209968861)
(0.878930802984 -0.493104379965 4.46518368521)
(0.837207208615 -0.542323191099 4.44630597008)
(0.795605462116 -0.588471177741 4.41868594158)
(0.752223144979 -0.63013655881 4.38836757753)
(0.707415443793 -0.667210448838 4.35604442502)
(0.719783621056 0.679740701329 4.4202518932)
(0.766575612738 0.64445211597 4.45357816925)
(0.814585743446 0.605842217742 4.4787130999)
(0.860857393158 0.561657827529 4.50199915278)
(0.904675091816 0.511918052931 4.52325680355)
(0.945287640992 0.456766824016 4.54231171856)
(0.981931048393 0.396488327607 4.55899838569)
(1.01385710139 0.331517035674 4.57316411279)
(1.0403662457 0.262440116575 4.58467320027)
(1.0608425455 0.18999042054 4.59341104673)
(1.07478774176 0.115029048348 4.59928791536)
(1.08185099727 0.0385176926698 4.60224207799)
(1.08185099727 -0.0385176926698 4.60224207799)
(1.07478774176 -0.115029048348 4.59928791536)
(1.0608425455 -0.18999042054 4.59341104673)
(1.0403662457 -0.262440116575 4.58467320027)
(1.01385710139 -0.331517035674 4.57316411279)
(0.981931048393 -0.396488327607 4.55899838569)
(0.945287640992 -0.456766824016 4.54231171856)
(0.904675091816 -0.511918052931 4.52325680355)
(0.860857393158 -0.561657827529 4.50199915278)
(0.814585743446 -0.605842217742 4.4787130999)
(0.766575612738 -0.64445211597 4.45357816925)
(0.719783621056 -0.679740701329 4.4202518932)
(0.737143581336 0.697160335158 4.47764552111)
(0.787795898697 0.665040818105 4.5076705877)
(0.837639204271 0.627014356261 4.53582127802)
(0.885970084767 0.582926968693 4.56190171836)
(0.932012314324 0.532738162284 4.58571574318)
(0.97493353554 0.476546521145 4.60707038647)
(1.01498924573 0.415070152934 4.62540241224)
(1.05935235198 0.351151657886 4.63792197145)
(1.0965140299 0.280613032254 4.64809907367)
(1.12541918144 0.204589841289 4.65582936717)
(1.14520428487 0.124455586865 4.66103054496)
(1.15525611799 0.0417730276837 4.66364568525)
(1.15525611799 -0.0417730276837 4.66364568525)
(1.14520428487 -0.124455586865 4.66103054496)
(1.12541918144 -0.204589841289 4.65582936717)
(1.0965140299 -0.280613032254 4.64809907367)
(1.05935235198 -0.351151657886 4.63792197145)
(1.01498924573 -0.415070152934 4.62540241224)
(0.97493353554 -0.476546521145 4.60707038647)
(0.932012314324 -0.532738162284 4.58571574318)
(0.885970084767 -0.582926968693 4.56190171836)
(0.837639204271 -0.627014356261 4.53582127802)
(0.787795898697 -0.665040818105 4.5076705877)
(0.737143581336 -0.697160335158 4.47764552111)
(0.75820907457 0.718314749788 4.53237444352)
(0.810395206285 0.687451480755 4.56586050571)
(0.862083861042 0.650236467566 4.59724714534)
(0.913855799112 0.607305058944 4.62583225258)
(0.977909111196 0.565735582219 4.64675506511)
(1.03841249431 0.514610896204 4.66552564527)
(1.09395304899 0.454223874639 4.68198114999)
(1.14308953553 0.385178625593 4.69596746242)
(1.184424965 0.308414813299 4.70734441781)
(1.21669094937 0.225208612947 4.71599125671)
(1.23883572998 0.137144670085 4.72181187186)
(1.25010516694 0.0460571302749 4.724739354)
(1.25010516694 -0.0460571302749 4.724739354)
(1.23883572998 -0.137144670085 4.72181187186)
(1.21669094937 -0.225208612947 4.71599125671)
(1.184424965 -0.308414813299 4.70734441781)
(1.14308953553 -0.385178625593 4.69596746242)
(1.09395304899 -0.454223874639 4.68198114999)
(1.03841249431 -0.514610896204 4.66552564527)
(0.977909111196 -0.565735582219 4.64675506511)
(0.913855799112 -0.607305058944 4.62583225258)
(0.862083861042 -0.650236467566 4.59724714534)
(0.810395206285 -0.687451480755 4.56586050571)
(0.75820907457 -0.718314749788 4.53237444352)
(-0.260335614223 0.27811156696 1.47792340335)
(-0.255691151268 0.31162416289 1.56385819664)
(-0.246920153862 0.344551083074 1.64453532243)
(-0.23406372317 0.376293387457 1.71924874823)
(-0.217254917082 0.406262352434 1.78735121614)
(-0.196715951427 0.433893425527 1.84825795077)
(-0.172753324615 0.458659561678 1.90144998088)
(-0.145750968038 0.480083585427 1.9464768462)
(-0.116161643072 0.497749427326 1.9829592249)
(-0.0844967363191 0.511311897791 2.01059109916)
(-0.0513146940105 0.520504759814 2.02914139248)
(-0.0172083778153 0.525146985571 2.03845534499)
(0.0172083778153 0.52514698557 2.03845534499)
(0.0513146940105 0.520504759814 2.02914139248)
(0.0844967363191 0.511311897791 2.01059109916)
(0.116161643072 0.497749427326 1.9829592249)
(0.145750968038 0.480083585427 1.9464768462)
(0.172753324615 0.458659561678 1.90144998088)
(0.196715951427 0.433893425527 1.84825795077)
(0.217254917082 0.406262352434 1.78735121614)
(0.23406372317 0.376293387457 1.71924874823)
(0.246920153862 0.344551083074 1.64453532243)
(0.255691151268 0.31162416289 1.56385819664)
(0.260335614223 0.27811156696 1.47792340335)
(-0.64039099191 0.683893592046 3.64519140605)
(-0.594619869633 0.724051480451 3.64951894759)
(-0.546248474795 0.761214462221 3.65358191839)
(-0.49547628506 0.795203604287 3.65734489191)
(-0.442516355359 0.82585381362 3.66077530583)
(-0.387594329183 0.853014994465 3.6638436677)
(-0.330947316818 0.876553145063 3.66652374029)
(-0.272822649345 0.896351369179 3.66879270633)
(-0.21347651895 0.91231078217 3.67063131793)
(-0.153172515652 0.924351294759 3.67202402278)
(-0.0921800776215 0.932412258487 3.67295906445)
(-0.0307728729812 0.936452960798 3.67342856213)
(0.0307728729812 0.936452960798 3.67342856213)
(0.0921800776215 0.932412258487 3.67295906445)
(0.153172515652 0.924351294759 3.67202402278)
(0.21347651895 0.91231078217 3.67063131793)
(0.272822649345 0.896351369179 3.66879270633)
(0.330947316818 0.876553145063 3.66652374029)
(0.387594329183 0.853014994465 3.6638436677)
(0.442516355359 0.82585381362 3.66077530583)
(0.49547628506 0.795203604287 3.65734489191)
(0.546248474795 0.761214462221 3.65358191839)
(0.594619869633 0.724051480451 3.64951894759)
(0.64039099191 0.683893592046 3.64519140605)
(-0.640564811471 0.68383270476 3.69435549914)
(-0.595017574046 0.723827126824 3.70182516995)
(-0.546829108305 0.760900408348 3.70883798556)
(-0.496192140683 0.794860540941 3.71533320095)
(-0.443315576967 0.82552892625 3.72125481709)
(-0.388423528078 0.85274198337 3.72655197068)
(-0.331754124922 0.876352695822 3.73117929514)
(-0.27355813044 0.89623205952 3.73509724929)
(-0.214097359138 0.912270397672 3.73827241128)
(-0.153642924698 0.924378509643 3.74067773064)
(-0.0924733386183 0.932488626224 3.74229273412)
(-0.0308724861974 0.936555148011 3.7431036836)
(0.0308724861974 0.936555148011 3.7431036836)
(0.0924733386183 0.932488626224 3.74229273412)
(0.153642924698 0.924378509643 3.74067773064)
(0.214097359138 0.912270397672 3.73827241128)
(0.27355813044 0.89623205952 3.73509724929)
(0.331754124922 0.876352695822 3.73117929514)
(0.388423528078 0.85274198337 3.72655197068)
(0.443315576967 0.82552892625 3.72125481709)
(0.496192140683 0.794860540941 3.71533320095)
(0.546829108305 0.760900408348 3.70883798556)
(0.595017574046 0.723827126824 3.70182516995)
(0.640564811471 0.68383270476 3.69435549914)
(-0.640755218362 0.683763976454 3.74725480713)
(-0.595455596839 0.723577099869 3.75810428451)
(-0.547470178738 0.760550110382 3.76828976682)
(-0.496983995922 0.794477012931 3.77772370915)
(-0.444201079274 0.825164593606 3.78632513824)
(-0.389343552426 0.852434527207 3.7940202775)
(-0.332650419318 0.876125439905 3.80074313513)
(-0.274376050575 0.896094868547 3.80643604806)
(-0.214788383479 0.912221061286 3.81105016929)
(-0.154166856149 0.924404569061 3.81454589097)
(-0.0928001108687 0.932569580419 3.81689319214)
(-0.0309835070137 0.936664960161 3.81807190694)
(0.0309835070137 0.936664960161 3.81807190694)
(0.0928001108687 0.932569580419 3.81689319214)
(0.154166856149 0.924404569061 3.81454589097)
(0.214788383479 0.912221061286 3.81105016929)
(0.274376050575 0.896094868547 3.80643604806)
(0.332650419318 0.876125439905 3.80074313513)
(0.389343552426 0.852434527207 3.7940202775)
(0.444201079274 0.825164593606 3.78632513824)
(0.496983995922 0.794477012931 3.77772370915)
(0.547470178738 0.760550110382 3.76828976682)
(0.595455596839 0.723577099869 3.75810428451)
(0.640755218362 0.683763976454 3.74725480713)
(-0.640964162352 0.683686153223 3.80417300288)
(-0.595939089325 0.723297648611 3.81865779705)
(-0.548179697462 0.760158183737 3.8322554161)
(-0.497862210761 0.794046836758 3.84485001325)
(-0.445184907945 0.824754583998 3.85633404171)
(-0.390367348773 0.852086966019 3.86660917306)
(-0.333649185504 0.875866739963 3.87558717482)
(-0.275288554364 0.895936437501 3.88319073188)
(-0.215560057883 0.912160747285 3.88935418902)
(-0.154752364445 0.924428643626 3.89402419877)
(-0.0931654685978 0.932655188565 3.8971602604)
(-0.0311076683719 0.936782944237 3.89873513629)
(0.0311076683719 0.936782944237 3.89873513629)
(0.0931654685978 0.932655188565 3.8971602604)
(0.154752364445 0.924428643626 3.89402419877)
(0.215560057883 0.912160747285 3.88935418902)
(0.275288554364 0.895936437501 3.88319073188)
(0.333649185504 0.875866739963 3.87558717482)
(0.390367348773 0.852086966019 3.86660917306)
(0.445184907945 0.824754583998 3.85633404171)
(0.497862210761 0.794046836758 3.84485001325)
(0.548179697462 0.760158183737 3.8322554161)
(0.595939089325 0.723297648611 3.81865779705)
(0.640964162352 0.683686153223 3.80417300288)
(-0.64119390007 0.683597733639 3.86541527329)
(-0.596474082891 0.722984310294 3.88381002909)
(-0.548967096512 0.759718198031 3.90107709918)
(-0.498839041772 0.793562589168 3.91707083332)
(-0.446281374637 0.824291375025 3.93165545868)
(-0.391510357322 0.851692427559 3.94470635987)
(-0.334765963043 0.875570927024 3.95611132037)
(-0.276310216401 0.895752623322 3.9657716958)
(-0.216424971564 0.912086916412 3.97360348588)
(-0.15540915636 0.924449640996 3.9795382793)
(-0.0935755343634 0.932745447129 3.98352404354)
(-0.0312470617608 0.936909680014 3.98552573873)
(0.0312470617608 0.936909680014 3.98552573873)
(0.0935755343634 0.932745447129 3.98352404354)
(0.15540915636 0.924449640996 3.9795382793)
(0.216424971564 0.912086916412 3.97360348588)
(0.276310216401 0.895752623322 3.9657716958)
(0.334765963043 0.875570927024 3.95611132037)
(0.391510357322 0.851692427559 3.94470635987)
(0.446281374637 0.824291375025 3.93165545868)
(0.498839041772 0.793562589168 3.91707083332)
(0.548967096512 0.759718198031 3.90107709918)
(0.596474082891 0.722984310294 3.88381002909)
(0.64119390007 0.683597733639 3.86541527329)
(-0.641447060149 0.683496909555 3.93130994053)
(-0.597067686111 0.722631740544 3.95390982287)
(-0.549843564004 0.759222415207 3.97512277049)
(-0.499929100559 0.793015288428 3.99477185545)
(-0.447507619034 0.823765811775 4.01269138814)
(-0.392791146639 0.851242496307 4.02872863655)
(-0.336019508972 0.875231011053 4.0427455184)
(-0.277458684939 0.895538271718 4.05462021651)
(-0.217398408134 0.911996361575 4.06424867397)
(-0.156149038925 0.924466121448 4.07154592252)
(-0.0940377654157 0.932840251446 4.07644720223)
(-0.0314042371845 0.937045779647 4.07890883787)
(0.0314042371845 0.937045779647 4.07890883787)
(0.0940377654157 0.932840251446 4.07644720223)
(0.156149038925 0.924466121448 4.07154592252)
(0.217398408134 0.911996361575 4.06424867397)
(0.277458684939 0.895538271718 4.05462021651)
(0.336019508972 0.875231011053 4.0427455184)
(0.392791146639 0.851242496307 4.02872863655)
(0.447507619034 0.823765811775 4.01269138814)
(0.499929100559 0.793015288428 3.99477185545)
(0.549843564004 0.759222415207 3.97512277049)
(0.597067686111 0.722631740544 3.95390982287)
(0.641447060149 0.683496909555 3.93130994053)
(-0.641726725323 0.683381490717 4.00221020418)
(-0.597728343513 0.722233488771 4.02933236783)
(-0.550822474811 0.758661449762 4.05478806958)
(-0.501149953156 0.792393973087 4.07836769283)
(-0.448884350311 0.82316665061 4.09987392429)
(-0.394232253925 0.850726769561 4.11912399615)
(-0.337432680767 0.874838290281 4.13595192953)
(-0.278755540839 0.895286909618 4.1502107041)
(-0.218499111067 0.911884997429 4.16177428988)
(-0.156986523858 0.924476181528 4.17053946937)
(-0.0945613408532 0.932939353477 4.17642738769)
(-0.0315823352605 0.93719188616 4.17938477275)
(0.0315823352605 0.93719188616 4.17938477275)
(0.0945613408532 0.932939353477 4.17642738769)
(0.156986523858 0.924476181528 4.17053946937)
(0.218499111067 0.911884997429 4.16177428988)
(0.278755540839 0.895286909618 4.1502107041)
(0.337432680767 0.874838290281 4.13595192953)
(0.394232253925 0.850726769561 4.11912399615)
(0.448884350311 0.82316665061 4.09987392429)
(0.501149953156 0.792393973087 4.07836769283)
(0.550822474811 0.758661449762 4.05478806958)
(0.597728343513 0.722233488771 4.02933236783)
(0.641726725323 0.683381490717 4.00221020418)
(-0.642036541562 0.68324880346 4.07849600491)
(-0.598466167319 0.721781707562 4.11048115294)
(-0.551919960474 0.758023814958 4.14049833929)
(-0.502522912384 0.791685138642 4.16830396519)
(-0.450436832604 0.822479944813 4.19366739961)
(-0.395861311398 0.850132254015 4.21637384123)
(-0.339407520271 0.87534609866 4.23351010573)
(-0.281333115331 0.898521546344 4.24333178385)
(-0.221124049829 0.917447169802 4.25129856795)
(-0.159203056853 0.93187244556 4.25733842704)
(-0.0960306301153 0.941601657697 4.26139618332)
(-0.0320956052071 0.9465004504 4.26343448568)
(0.0320956052071 0.9465004504 4.26343448568)
(0.0960306301153 0.941601657697 4.26139618332)
(0.159203056853 0.93187244556 4.25733842704)
(0.221124049829 0.917447169802 4.25129856795)
(0.281333115331 0.898521546344 4.24333178385)
(0.339407520271 0.87534609866 4.23351010573)
(0.395861311398 0.850132254015 4.21637384123)
(0.450436832604 0.822479944813 4.19366739961)
(0.502522912384 0.791685138642 4.16830396519)
(0.551919960474 0.758023814958 4.14049833929)
(0.598466167319 0.721781707562 4.11048115294)
(0.642036541562 0.68324880346 4.07849600491)
(-0.642380857725 0.683095559913 4.16057602307)
(-0.599293380716 0.721266761373 4.19779004558)
(-0.553437049551 0.757680544107 4.23145745877)
(-0.507085406315 0.79559658887 4.25034022096)
(-0.457151962474 0.830693309698 4.26756661753)
(-0.403846428266 0.862543327551 4.28299136223)
(-0.347444871157 0.890735707455 4.2964810736)
(-0.288288749333 0.914887822876 4.30791643905)
(-0.226781322648 0.934657408683 4.31719429285)
(-0.163381325459 0.949754143817 4.32422952483)
(-0.0985939731342 0.959950058594 4.32895673462)
(-0.0329595969469 0.965088074292 4.33133155052)
(0.0329595969469 0.965088074292 4.33133155052)
(0.0985939731342 0.959950058594 4.32895673462)
(0.163381325459 0.949754143817 4.32422952483)
(0.226781322648 0.934657408683 4.31719429285)
(0.288288749333 0.914887822876 4.30791643905)
(0.347444871157 0.890735707455 4.2964810736)
(0.403846428266 0.862543327551 4.28299136223)
(0.457151962474 0.830693309698 4.26756661753)
(0.507085406315 0.79559658887 4.25034022096)
(0.553437049551 0.757680544107 4.23145745877)
(0.599293380716 0.721266761373 4.19779004558)
(0.642380857725 0.683095559913 4.16057602307)
(-0.644848867449 0.685131821885 4.24090157634)